/*--------------------------------*- C++ -*----------------------------------*\
| =========                 |                                                 |
| \\      /  F ield         | OpenFOAM: The Open Source CFD Toolbox           |
|  \\    /   O peration     | Version:  2312                                  |
|   \\  /    A nd           | Website:  www.openfoam.com                      |
|    \\/     M anipulation  |                                                 |
\*---------------------------------------------------------------------------*/
FoamFile
{
    version     2.0;
    format      ascii;
    arch        "LSB;label=32;scalar=64";
    class       polyBoundaryMesh;
    location    "constant/polyMesh";
    object      boundary;
}
// * * * * * * * * * * * * * * * * * * * * * * * * * * * * * * * * * * * * * //

16
(
    row_1
    {
        type            patch;
        nFaces          41;
        startFace       2086;
    }
    row_2
    {
        type            patch;
        nFaces          36;
        startFace       2127;
    }
    row_3
    {
        type            patch;
        nFaces          12;
        startFace       2163;
    }
    row_4
    {
        type            patch;
        nFaces          0;
        startFace       2175;
    }
    row_5
    {
        type            patch;
        nFaces          0;
        startFace       2175;
    }
    row_6
    {
        type            patch;
        nFaces          0;
        startFace       2175;
    }
    row_7
    {
        type            patch;
        nFaces          0;
        startFace       2175;
    }
    symmetry_xz
    {
        type            symmetry;
        inGroups        1(symmetry);
        nFaces          0;
        startFace       2175;
    }
    symmetry_yz
    {
        type            symmetry;
        inGroups        1(symmetry);
        nFaces          19;
        startFace       2175;
    }
    wall
    {
        type            patch;
        nFaces          0;
        startFace       2194;
    }
    slabs
    {
        type            patch;
        nFaces          98;
        startFace       2194;
    }
    topBottom
    {
        type            empty;
        inGroups        1(empty);
        nFaces          2512;
        startFace       2292;
    }
    procBoundary2to1
    {
        type            processor;
        inGroups        1(processor);
        nFaces          17;
        startFace       4804;
        matchTolerance  0.0001;
        transform       unknown;
        myProcNo        2;
        neighbProcNo    1;
    }
    procBoundary2to3
    {
        type            processor;
        inGroups        1(processor);
        nFaces          28;
        startFace       4821;
        matchTolerance  0.0001;
        transform       unknown;
        myProcNo        2;
        neighbProcNo    3;
    }
    procBoundary2to6
    {
        type            processor;
        inGroups        1(processor);
        nFaces          18;
        startFace       4849;
        matchTolerance  0.0001;
        transform       unknown;
        myProcNo        2;
        neighbProcNo    6;
    }
    procBoundary2to7
    {
        type            processor;
        inGroups        1(processor);
        nFaces          26;
        startFace       4867;
        matchTolerance  0.0001;
        transform       unknown;
        myProcNo        2;
        neighbProcNo    7;
    }
)

// ************************************************************************* //
