/*--------------------------------*- C++ -*----------------------------------*\
| =========                 |                                                 |
| \\      /  F ield         | OpenFOAM: The Open Source CFD Toolbox           |
|  \\    /   O peration     | Version:  v2212                                 |
|   \\  /    A nd           | Website:  www.openfoam.com                      |
|    \\/     M anipulation  |                                                 |
\*---------------------------------------------------------------------------*/
FoamFile
{
    version     2.0;
    format      ascii;
    class       dictionary;
    object      setFieldsDict;
}
// * * * * * * * * * * * * * * * * * * * * * * * * * * * * * * * * * * * * * //

defaultFieldValues
(
    volScalarFieldValue rho 1e-3
    volScalarFieldValue T  1000
    volScalarFieldValue p 1187.714
    volVectorFieldValue U (0 0 0)
);

regions
(
   boxToCell
    {
        box (0 -1 -1) (5 1 1);
        fieldValues
        (
            volScalarFieldValue rho 6.2247267
        );
    }

    boxToCell
    {
        box (0 -1 -1) (5 1 1);
        fieldValues
        (
            volScalarFieldValue T 277932.9748
        );
    }

    boxToCell
    {
        box (0 -1 -1) (5 1 1);
        fieldValues
        (
            volScalarFieldValue p 0.7400895532e9
        );
    }
  
);


// ************************************************************************* //
