/*--------------------------------*- C++ -*----------------------------------*\
| =========                 |                                                 |
| \\      /  F ield         | OpenFOAM: The Open Source CFD Toolbox           |
|  \\    /   O peration     | Version:  2312                                  |
|   \\  /    A nd           | Website:  www.openfoam.com                      |
|    \\/     M anipulation  |                                                 |
\*---------------------------------------------------------------------------*/
FoamFile
{
    version     2.0;
    format      ascii;
    arch        "LSB;label=32;scalar=64";
    class       polyBoundaryMesh;
    location    "constant/polyMesh";
    object      boundary;
}
// * * * * * * * * * * * * * * * * * * * * * * * * * * * * * * * * * * * * * //

19
(
    row_1
    {
        type            patch;
        nFaces          0;
        startFace       2153;
    }
    row_2
    {
        type            patch;
        nFaces          0;
        startFace       2153;
    }
    row_3
    {
        type            patch;
        nFaces          24;
        startFace       2153;
    }
    row_4
    {
        type            patch;
        nFaces          38;
        startFace       2177;
    }
    row_5
    {
        type            patch;
        nFaces          42;
        startFace       2215;
    }
    row_6
    {
        type            patch;
        nFaces          52;
        startFace       2257;
    }
    row_7
    {
        type            patch;
        nFaces          56;
        startFace       2309;
    }
    symmetry_xz
    {
        type            symmetry;
        inGroups        1(symmetry);
        nFaces          0;
        startFace       2365;
    }
    symmetry_yz
    {
        type            symmetry;
        inGroups        1(symmetry);
        nFaces          0;
        startFace       2365;
    }
    wall
    {
        type            patch;
        nFaces          0;
        startFace       2365;
    }
    slabs
    {
        type            patch;
        nFaces          0;
        startFace       2365;
    }
    topBottom
    {
        type            empty;
        inGroups        1(empty);
        nFaces          2548;
        startFace       2365;
    }
    procBoundary1to0
    {
        type            processor;
        inGroups        1(processor);
        nFaces          19;
        startFace       4913;
        matchTolerance  0.0001;
        transform       unknown;
        myProcNo        1;
        neighbProcNo    0;
    }
    procBoundary1to2
    {
        type            processor;
        inGroups        1(processor);
        nFaces          17;
        startFace       4932;
        matchTolerance  0.0001;
        transform       unknown;
        myProcNo        1;
        neighbProcNo    2;
    }
    procBoundary1to3
    {
        type            processor;
        inGroups        1(processor);
        nFaces          5;
        startFace       4949;
        matchTolerance  0.0001;
        transform       unknown;
        myProcNo        1;
        neighbProcNo    3;
    }
    procBoundary1to4
    {
        type            processor;
        inGroups        1(processor);
        nFaces          2;
        startFace       4954;
        matchTolerance  0.0001;
        transform       unknown;
        myProcNo        1;
        neighbProcNo    4;
    }
    procBoundary1to5
    {
        type            processor;
        inGroups        1(processor);
        nFaces          9;
        startFace       4956;
        matchTolerance  0.0001;
        transform       unknown;
        myProcNo        1;
        neighbProcNo    5;
    }
    procBoundary1to6
    {
        type            processor;
        inGroups        1(processor);
        nFaces          5;
        startFace       4965;
        matchTolerance  0.0001;
        transform       unknown;
        myProcNo        1;
        neighbProcNo    6;
    }
    procBoundary1to7
    {
        type            processor;
        inGroups        1(processor);
        nFaces          15;
        startFace       4970;
        matchTolerance  0.0001;
        transform       unknown;
        myProcNo        1;
        neighbProcNo    7;
    }
)

// ************************************************************************* //
