/*--------------------------------*- C++ -*----------------------------------*\
| =========                 |                                                 |
| \\      /  F ield         | OpenFOAM: The Open Source CFD Toolbox           |
|  \\    /   O peration     | Version:  v2212                                 |
|   \\  /    A nd           | Website:  www.openfoam.com                      |
|    \\/     M anipulation  |                                                 |
\*---------------------------------------------------------------------------*/
FoamFile
{
    version     2.0;
    format      ascii;
    class       volScalarField;
    object      G;
}
// * * * * * * * * * * * * * * * * * * * * * * * * * * * * * * * * * * * * * //

dimensions      [1 0 -3 0 0 0 0];

internalField   uniform 0;

boundaryField
{
    rightWall
    {
        type            fixedValue;
        value            uniform 0;
    }
    leftWall
    {
        type            myMarshakRadiationFixedTemperature;
        Trad            uniform 6029.62;  // temperature such that the flux F = c/4
    }

    empty
    {
        type            empty;
    }
}


// ************************************************************************* //
