/*--------------------------------*- C++ -*----------------------------------*\
| =========                 |                                                 |
| \\      /  F ield         | OpenFOAM: The Open Source CFD Toolbox           |
|  \\    /   O peration     | Version:  2312                                  |
|   \\  /    A nd           | Website:  www.openfoam.com                      |
|    \\/     M anipulation  |                                                 |
\*---------------------------------------------------------------------------*/
FoamFile
{
    version     2.0;
    format      ascii;
    arch        "LSB;label=32;scalar=64";
    class       polyBoundaryMesh;
    location    "constant/polyMesh";
    object      boundary;
}
// * * * * * * * * * * * * * * * * * * * * * * * * * * * * * * * * * * * * * //

15
(
    row_1
    {
        type            patch;
        nFaces          0;
        startFace       1845;
    }
    row_2
    {
        type            patch;
        nFaces          0;
        startFace       1845;
    }
    row_3
    {
        type            patch;
        nFaces          0;
        startFace       1845;
    }
    row_4
    {
        type            patch;
        nFaces          0;
        startFace       1845;
    }
    row_5
    {
        type            patch;
        nFaces          0;
        startFace       1845;
    }
    row_6
    {
        type            patch;
        nFaces          0;
        startFace       1845;
    }
    row_7
    {
        type            patch;
        nFaces          0;
        startFace       1845;
    }
    symmetry_xz
    {
        type            symmetry;
        inGroups        1(symmetry);
        nFaces          30;
        startFace       1845;
    }
    symmetry_yz
    {
        type            symmetry;
        inGroups        1(symmetry);
        nFaces          0;
        startFace       1875;
    }
    wall
    {
        type            patch;
        nFaces          29;
        startFace       1875;
    }
    slabs
    {
        type            patch;
        nFaces          0;
        startFace       1904;
    }
    topBottom
    {
        type            empty;
        inGroups        1(empty);
        nFaces          2530;
        startFace       1904;
    }
    procBoundary5to0
    {
        type            processor;
        inGroups        1(processor);
        nFaces          7;
        startFace       4434;
        matchTolerance  0.0001;
        transform       unknown;
        myProcNo        5;
        neighbProcNo    0;
    }
    procBoundary5to1
    {
        type            processor;
        inGroups        1(processor);
        nFaces          9;
        startFace       4441;
        matchTolerance  0.0001;
        transform       unknown;
        myProcNo        5;
        neighbProcNo    1;
    }
    procBoundary5to4
    {
        type            processor;
        inGroups        1(processor);
        nFaces          30;
        startFace       4450;
        matchTolerance  0.0001;
        transform       unknown;
        myProcNo        5;
        neighbProcNo    4;
    }
)

// ************************************************************************* //
