/*--------------------------------*- C++ -*----------------------------------*\
| =========                 |                                                 |
| \\      /  F ield         | OpenFOAM: The Open Source CFD Toolbox           |
|  \\    /   O peration     | Version:  v2212                                 |
|   \\  /    A nd           | Website:  www.openfoam.com                      |
|    \\/     M anipulation  |                                                 |
\*---------------------------------------------------------------------------*/
FoamFile
{
    version     2.0;
    format      ascii;
    class       dictionary;
    object      thermophysicalProperties;
}
// * * * * * * * * * * * * * * * * * * * * * * * * * * * * * * * * * * * * * //

thermoType
{
    type            myHeRhoThermo;
    mixture         myPureMixture;
    transport       const;
    thermo          eConst;
    equationOfState myPerfectGas;
    specie          mySpecie;
    energy          sensibleInternalEnergy;
}

mixture
{
    mySpecie
    {
        molWeight       7.;
    }
    
    thermodynamics
    {
        Cv              1781.5;
        Cp              2969.76;

        Hf              0;
        Tref            0;
    }
    
    
    transport
    {
        mu  0;   
        Pr  1;
    }
}


// ************************************************************************* //
