/*--------------------------------*- C++ -*----------------------------------*\
| =========                 |                                                 |
| \\      /  F ield         | OpenFOAM: The Open Source CFD Toolbox           |
|  \\    /   O peration     | Version:  2312                                  |
|   \\  /    A nd           | Website:  www.openfoam.com                      |
|    \\/     M anipulation  |                                                 |
\*---------------------------------------------------------------------------*/
FoamFile
{
    version     2.0;
    format      ascii;
    arch        "LSB;label=32;scalar=64";
    class       volVectorField;
    location    "0";
    object      U;
}
// * * * * * * * * * * * * * * * * * * * * * * * * * * * * * * * * * * * * * //

dimensions      [0 1 -1 0 0 0 0];

internalField   uniform (0 0 0);

boundaryField
{
    row_1
    {
        type            noSlip;
    }
    row_2
    {
        type            noSlip;
    }
    row_3
    {
        type            noSlip;
    }
    row_4
    {
        type            noSlip;
    }
    row_5
    {
        type            noSlip;
    }
    row_6
    {
        type            noSlip;
    }
    row_7
    {
        type            noSlip;
    }
    symmetry_xz
    {
        type            symmetry;
    }
    symmetry_yz
    {
        type            symmetry;
    }
    wall
    {
        type            noSlip;
    }
    slabs
    {
        type            noSlip;
    }
    topBottom
    {
        type            empty;
    }
    procBoundary4to1
    {
        type            processor;
        value           uniform (0 0 0);
    }
    procBoundary4to5
    {
        type            processor;
        value           uniform (0 0 0);
    }
    procBoundary4to6
    {
        type            processor;
        value           uniform (0 0 0);
    }
}


// ************************************************************************* //
