/*--------------------------------*- C++ -*----------------------------------*\
| =========                 |                                                 |
| \\      /  F ield         | OpenFOAM: The Open Source CFD Toolbox           |
|  \\    /   O peration     | Version:  v2212                                 |
|   \\  /    A nd           | Website:  www.openfoam.com                      |
|    \\/     M anipulation  |                                                 |
\*---------------------------------------------------------------------------*/
FoamFile
{
    version     2.0;
    format      ascii;
    class       dictionary;
    object      setFieldsDict;
}
// * * * * * * * * * * * * * * * * * * * * * * * * * * * * * * * * * * * * * //

defaultFieldValues
(
    volVectorFieldValue U (0 0 0)
    volScalarFieldValue T 300
    volScalarFieldValue p 100000
    volScalarFieldValue rho 1.161023914
);

regions
(
    boxToCell
    {
        box (0 -1 -1) (5 1 1);
        fieldValues
        (
            volScalarFieldValue p 10000
            volScalarFieldValue rho 0.1161023914
        );
    }
);


// ************************************************************************* //
